Circuit: * C:\Users\Marshall\Desktop\FYP\AI-based_circuit_design\raw_schematics\figure26.asc

Direct Newton iteration for .op point succeeded.

Date: Tue Jan 10 14:58:44 2023
Total elapsed time: 0.020 seconds.

tnom = 27
temp = 27
method = trap
totiter = 3
traniter = 0
tranpoints = 0
accept = 0
rejected = 0
matrix size = 4
fillins = 0
solver = Normal
Matrix Compiler1: 118 bytes object code size
Matrix Compiler2: 282 bytes object code size
